Version 4
SHEET 1 880 680
WIRE 304 -272 144 -272
WIRE 544 -272 304 -272
WIRE 624 -272 544 -272
WIRE 144 -224 144 -272
WIRE 624 -224 624 -272
WIRE 304 -208 304 -272
WIRE 544 -208 544 -272
WIRE 144 -96 144 -144
WIRE 304 -96 304 -144
WIRE 384 -96 304 -96
WIRE 544 -96 544 -144
WIRE 544 -96 464 -96
WIRE 624 -96 624 -144
WIRE 624 -96 544 -96
WIRE 304 -16 304 -96
WIRE 112 64 -96 64
WIRE 256 64 192 64
WIRE -96 144 -96 64
WIRE 304 144 304 80
WIRE 384 144 304 144
WIRE 304 176 304 144
WIRE 384 176 384 144
WIRE -96 304 -96 224
WIRE 304 304 304 256
WIRE 384 304 384 240
FLAG 304 304 0
FLAG 384 304 0
FLAG -96 304 0
FLAG 144 -96 0
SYMBOL ind 368 -80 R270
WINDOW 0 32 56 VTop 2
WINDOW 3 5 56 VBottom 2
SYMATTR InstName L1
SYMATTR Value 22µ
SYMBOL res 208 48 R90
WINDOW 0 0 56 VBottom 2
WINDOW 3 32 56 VTop 2
SYMATTR InstName R1
SYMATTR Value 22
SYMBOL nmos 256 -16 R0
SYMATTR InstName M1
SYMATTR Value IRLML0040
SYMBOL schottky 320 -144 R180
WINDOW 0 24 64 Left 2
WINDOW 3 24 0 Left 2
SYMATTR InstName D1
SYMATTR Value MBRS1100
SYMATTR Description Diode
SYMATTR Type diode
SYMBOL res 288 160 R0
SYMATTR InstName R3
SYMATTR Value 2
SYMBOL cap 368 176 R0
SYMATTR InstName C2
SYMATTR Value 1µ
SYMBOL voltage -96 128 R0
WINDOW 123 0 0 Left 2
WINDOW 39 24 124 Left 2
SYMATTR SpiceLine Cpar=100p
SYMATTR InstName V1
SYMATTR Value PULSE(0 3.3 0 10n 10n 19u 20u)
SYMBOL voltage 144 -240 R0
WINDOW 123 0 0 Left 2
WINDOW 39 0 0 Left 2
SYMATTR InstName V2
SYMATTR Value 36
SYMBOL res 608 -240 R0
SYMATTR InstName R2
SYMATTR Value 12R
SYMBOL cap 528 -208 R0
SYMATTR InstName C1
SYMATTR Value 10µ
TEXT -128 328 Left 2 !.tran 3m
